/*--------------------------------*- C++ -*----------------------------------*\
| =========                 |                                                 |
| \\      /  F ield         | OpenFOAM: The Open Source CFD Toolbox           |
|  \\    /   O peration     | Version:  1.7.1                                 |
|   \\  /    A nd           | Web:      www.OpenFOAM.com                      |
|    \\/     M anipulation  |                                                 |
\*---------------------------------------------------------------------------*/
FoamFile
{
    version     2.0;
    format      ascii;
    class       dictionary;
    location    "system";
    object      fvSchemes;
}
// * * * * * * * * * * * * * * * * * * * * * * * * * * * * * * * * * * * * * //

ddtSchemes
{
    default 	    Euler;
}

gradSchemes
{
    default         leastSquares;
    grad(D)         leastSquares;
    grad(p)         leastSquares;
}

divSchemes
{
    default         none;
    div(sigmaD)     Gauss linear;
    div(ddt(Dp2,D)) Gauss linear corrected;
}

laplacianSchemes
{
    default         none;
    laplacian(DD,D) Gauss linear corrected;
    laplacian(Dp,p) Gauss linear corrected;
}

interpolationSchemes
{
    default         linear;
}

snGradSchemes
{
    default         none;
}

fluxRequired
{
    default         no;
    D               yes;
    p               no;
}


// ************************************************************************* //
